#===========================================================
# GENERAL PROCEDURES
#===========================================================
units		real   # g/mol, angstroms, fs, kcal/mol, K, atm, charge*angstrom
dimension	3      # 3 dimensional simulation
newton		off 	# use Newton's 3rd law
boundary	p p p	# periodic boundary conditions
atom_style	full	# molecular + charge

#===========================================================
# DEFINE PAIR, BOND, AND ANGLE STYLES
#===========================================================
special_bonds   amber
pair_style      hybrid buck/coul/long 15.0 15.0 lj/cut/coul/long 15.0 15.0
pair_modify     shift yes mix arithmetic       # using Lorenz-Berthelot mixing rules
bond_style      harmonic
angle_style     harmonic
dihedral_style  opls
kspace_style    pppm 0.0001

#===========================================================
# SETUP SIMULATIONS
#===========================================================

# READ IN COEFFICIENTS/COORDINATES/TOPOLOGY
read_data NH3_1C_Angew-1+H_minimized_optimized.data
  orthogonal box = (-3.2 -43.7797 -3.2) to (22.4 43.7797 22.4)
  reading atoms ...
  656 atoms
  scanning bonds ...
  scanning angles ...
  scanning dihedrals ...
  reading bonds ...
  576 bonds
  reading angles ...
  960 angles
  reading dihedrals ...
  1248 dihedrals
include NH3_1C_Angew-1+H_minimized_optimized.in.settings
     # Non-bonded interactions (pair-wise)
     pair_coeff           1          1          lj/cut/coul/long      0.015000             2.599642
     pair_coeff           1          2          lj/cut/coul/long      0.015346             2.279809
     pair_coeff           1          3          lj/cut/coul/long      0.015346             1.834360
     pair_coeff           1          4          lj/cut/coul/long      2.447536             3.100000                    # I-H
     pair_coeff           1          5          lj/cut/coul/long      0.035917             2.999656
     pair_coeff           1          6          lj/cut/coul/long      0.035917             2.999656
     pair_coeff           1          7          lj/cut/coul/long      0.035917             2.999656
     pair_coeff           1          8          lj/cut/coul/long      0.040509             2.999656
     pair_coeff           1          9          lj/cut/coul/long      0.050498             2.924821
     pair_coeff           1          10         lj/cut/coul/long      0.596960             2.709990                    # Pb-H, HC, carbon
     pair_coeff           2          2          lj/cut/coul/long      0.015700             1.959977
     pair_coeff           2          3          lj/cut/coul/long      0.015700             1.514528
     pair_coeff           2          4          lj/cut/coul/long      2.447536             3.100000                    # I-H
     pair_coeff           2          5          lj/cut/coul/long      0.036745             2.679823
     pair_coeff           2          6          lj/cut/coul/long      0.036745             2.679823
     pair_coeff           2          7          lj/cut/coul/long      0.036745             2.679823
     pair_coeff           2          8          lj/cut/coul/long      0.041444             2.679823
     pair_coeff           2          9          lj/cut/coul/long      0.051662             2.604988
     pair_coeff           2          10         lj/cut/coul/long      0.596960             2.709990                    # Pb-H, HC, carbon
     pair_coeff           3          3          lj/cut/coul/long      0.015700             1.069078
     pair_coeff           3          4          lj/cut/coul/long      2.447536             2.750000                    # I-H, HN, nitrogen
     pair_coeff           3          5          lj/cut/coul/long      0.036745             2.234374
     pair_coeff           3          6          lj/cut/coul/long      0.036745             2.234374
     pair_coeff           3          7          lj/cut/coul/long      0.036745             2.234374
     pair_coeff           3          8          lj/cut/coul/long      0.041444             2.234374
     pair_coeff           3          9          lj/cut/coul/long      0.051662             2.159539
     pair_coeff           3          10         lj/cut/coul/long      0.596960             2.264540                    # # Pb-H, HN, nitrogen
     pair_coeff           4          4          buck/coul/long        22793.338580         0.482217             696.949542                  # I-I
     pair_coeff           4          5          buck/coul/long        112936.714213        0.342426             0.000000                    # I-C
     pair_coeff           4          6          buck/coul/long        112936.714213        0.342426             0.000000                    # I-C
     pair_coeff           4          7          buck/coul/long        112936.714213        0.342426             0.000000                    # I-C
     pair_coeff           4          8          buck/coul/long        112936.714213        0.342426             0.000000                    # I-C
     pair_coeff           4          9          buck/coul/long        112936.714213        0.342426             0.000000                    # I-N
     pair_coeff           4          10         buck/coul/long        103496.133010        0.321737             0.000000                    # Pb_I-I
     pair_coeff           5          5          lj/cut/coul/long      0.086000             3.399670
     pair_coeff           5          6          lj/cut/coul/long      0.086000             3.399670
     pair_coeff           5          7          lj/cut/coul/long      0.086000             3.399670
     pair_coeff           5          8          lj/cut/coul/long      0.096997             3.399670
     pair_coeff           5          9          lj/cut/coul/long      0.120913             3.324834
     pair_coeff           5          10         buck/coul/long        32690390.937995      0.150947             0.000000                    # Pb_I-C
     pair_coeff           6          6          lj/cut/coul/long      0.086000             3.399670
     pair_coeff           6          7          lj/cut/coul/long      0.086000             3.399670
     pair_coeff           6          8          lj/cut/coul/long      0.096997             3.399670
     pair_coeff           6          9          lj/cut/coul/long      0.120913             3.324834
     pair_coeff           6          10         buck/coul/long        32690390.937995      0.150947             0.000000                    # Pb_I-C
     pair_coeff           7          7          lj/cut/coul/long      0.086000             3.399670
     pair_coeff           7          8          lj/cut/coul/long      0.096997             3.399670
     pair_coeff           7          9          lj/cut/coul/long      0.120913             3.324834
     pair_coeff           7          10         buck/coul/long        32690390.937995      0.150947             0.000000                    # Pb_I-C
     pair_coeff           8          8          lj/cut/coul/long      0.109400             3.399670
     pair_coeff           8          9          lj/cut/coul/long      0.136374             3.324834
     pair_coeff           8          10         buck/coul/long        32690390.937995      0.150947             0.000000                    # Pb_I-C
     pair_coeff           9          9          lj/cut/coul/long      0.170000             3.249999
     pair_coeff           9          10         buck/coul/long        32690390.937995      0.150947             0.000000                    # Pb_I-N
     pair_coeff           10         10         buck/coul/long        70359906.629702      0.131258             0.000000                    # Pb_I-Pb_I

     # Stretching interactions
     bond_coeff           1           345.800000           1.086000
     bond_coeff           2           345.800000           1.086000
     bond_coeff           3           338.700000           1.091000
     bond_coeff           4           373.200000           1.030400
     bond_coeff           5           461.100000           1.398400
     bond_coeff           6           461.100000           1.398400
     bond_coeff           7           461.100000           1.398400
     bond_coeff           8           321.000000           1.515600
     bond_coeff           9           283.300000           1.511000

     # Bending interactions
     angle_coeff          1           48.180000            119.880000
     angle_coeff          2           48.180000            119.880000
     angle_coeff          3           48.180000            119.880000
     angle_coeff          4           48.180000            119.880000
     angle_coeff          5           39.220000            109.750000
     angle_coeff          6           46.620000            111.450000
     angle_coeff          7           48.650000            108.010000
     angle_coeff          8           40.580000            108.300000
     angle_coeff          9           45.850000            110.110000
     angle_coeff          10          66.620000            120.020000
     angle_coeff          11          66.620000            120.020000
     angle_coeff          12          66.620000            120.020000
     angle_coeff          13          66.620000            120.020000
     angle_coeff          14          63.530000            120.770000
     angle_coeff          15          64.770000            113.800000

     # Dihedral interactions
     dihedral_coeff       1           0.000000             7.250000             0.000000             0.000000
     dihedral_coeff       2           0.000000             7.250000             0.000000             0.000000
     dihedral_coeff       3           0.000000             7.250000             0.000000             0.000000
     dihedral_coeff       4           0.000000             7.250000             0.000000             0.000000
     dihedral_coeff       5           0.000000             7.250000             0.000000             0.000000
     dihedral_coeff       6           0.000000             7.250000             0.000000             0.000000
     dihedral_coeff       7           0.000000             7.250000             0.000000             0.000000
     dihedral_coeff       8           0.000000             7.250000             0.000000             0.000000
     dihedral_coeff       9           0.000000             0.000000             0.000000             0.000000
     dihedral_coeff       10          0.000000             0.000000             0.311111             0.000000
     dihedral_coeff       11          0.000000             0.000000             0.311111             0.000000
     dihedral_coeff       12          0.000000             7.250000             0.000000             0.000000
     dihedral_coeff       13          0.000000             7.250000             0.000000             0.000000
     dihedral_coeff       14          0.000000             7.250000             0.000000             0.000000
     dihedral_coeff       15          0.000000             7.250000             0.000000             0.000000
     dihedral_coeff       16          0.000000             0.000000             0.000000             0.000000

# SET RUN PARAMETERS
timestep	1.0		# fs
run_style	verlet 		# Velocity-Verlet integrator
neigh_modify every 1 delay 10 check yes one 10000

# SET OUTPUTS
thermo_style    custom step temp vol density etotal pe ebond eangle edihed ecoul elong evdwl enthalpy press
thermo_modify   format float %14.6f
thermo 1000

# DECLARE RELEVANT OUTPUT VARIABLES
variable        my_step equal   step
variable        my_temp equal   temp
variable        my_rho  equal   density
variable        my_pe   equal   pe
variable        my_ebon equal   ebond
variable        my_eang equal   eangle
variable        my_edih equal   edihed
variable        my_evdw equal   evdwl
variable        my_eel  equal   (ecoul+elong)
variable        my_ent  equal   enthalpy
variable        my_P    equal   press
variable        my_vol  equal   vol

fix averages all ave/time 1 1000 1000 v_my_temp v_my_rho v_my_vol v_my_pe v_my_edih v_my_evdw v_my_eel v_my_ent v_my_P file 0.thermo.avg

# CREATE COORDINATE DUMPS FOR NVE RELAXATION
dump relax all custom 1000 0.nve.1.lammpstrj id type x y z
dump_modify relax sort  id

# INITIALIZE VELOCITIES AND CREATE THE CONSTRAINED RELAXATION FIX
velocity        all create 298.0 52967 mom yes rot yes
fix relax all nve/limit 0.01
run             10000
PPPM initialization ...
  G vector (1/distance) = 0.15861
  grid = 8 18 8
  stencil order = 5
  estimated absolute RMS force accuracy = 0.0216358
  estimated relative force accuracy = 6.51555e-05
  3d grid and FFT values/proc = 392 16
  update every 1 steps, delay 10 steps, check yes
Step Temp Volume Density TotEng PotEng E_bond E_angle E_dihed E_coul E_long E_vdwl Enthalpy Press
0     298.000000   57382.899195       0.431122   -8970.011871   -9551.836184      18.560582      22.998292       4.401131   -5716.601650   -4576.398885     695.204344   -3629.225159    6381.853911
Averages over the last 6 of 11 rows, steps 5000 to 10000:
Temp Volume Density TotEng PotEng E_bond E_angle E_dihed E_coul E_long E_vdwl Enthalpy Press
44.9695 57382.9 0.431122 -11066.2 -11154 8.66038 28.0938 17.2439 -6080.41 -4645.73 -481.889 -11588.4 -623.957
Loop time of 9.81674 on 128 procs for 10000 steps with 656 atoms

unfix relax
undump relax

#===========================================================
# RUN PRODUCTION
#===========================================================

# UPDATE RUN PARAMETERS AND CREATE FIX
fix mom all momentum 1000 linear 1 1 1 angular # Zero out system linear and angular momentum every ps

# NPT equilibration, x and z direction to accomodate any lattice changes
fix equil all npt temp 298.0 298.0 100.0 x 1.0 1.0 1000.0 z 1.0 1.0 1000.0
dump equil all custom 1000 0.npt.lammpstrj id type x y z
dump_modify equil sort  id

# RUN NPT
run		100000
PPPM initialization ...
  G vector (1/distance) = 0.15861
  grid = 8 18 8
  stencil order = 5
  estimated absolute RMS force accuracy = 0.0216358
  estimated relative force accuracy = 6.51555e-05
  3d grid and FFT values/proc = 392 16
  update every 1 steps, delay 10 steps, check yes
Step Temp Volume Density TotEng PotEng E_bond E_angle E_dihed E_coul E_long E_vdwl Enthalpy Press
10000      39.159048   57382.899195       0.431122  -11092.157230  -11168.612552       9.507797      29.009239      14.036368   -6098.775295   -4645.390525    -477.000136  -11742.984606    -777.691651
Averages over the last 51 of 101 rows, steps 60000 to 110000:
Temp Volume Density TotEng PotEng E_bond E_angle E_dihed E_coul E_long E_vdwl Enthalpy Press
297.325 53367.4 0.463578 -10077.7 -10658.2 178.427 192.568 99.8696 -6198.04 -4637.28 -293.714 -10068 12.8698
Loop time of 116.375 on 128 procs for 100000 steps with 656 atoms

unfix equil
undump equil

# NVT run
fix equil all nvt temp 298.0 298.0 100.0

# CREATE COORDINATE DUMPS FOR EQUILIBRIUM
dump equil all custom 1000 0.nvt.lammpstrj id type x y z
dump_modify equil sort  id

# RUN NVT
run		100000
PPPM initialization ...
  G vector (1/distance) = 0.15914
  grid = 8 18 8
  stencil order = 5
  estimated absolute RMS force accuracy = 0.0216879
  estimated relative force accuracy = 6.53124e-05
  3d grid and FFT values/proc = 392 16
  update every 1 steps, delay 10 steps, check yes
Step Temp Volume Density TotEng PotEng E_bond E_angle E_dihed E_coul E_long E_vdwl Enthalpy Press
110000     297.770869   52941.651564       0.467289  -10083.869098  -10665.246050     177.355382     203.916596     106.568696   -6176.665154   -4655.243979    -321.177590   -9866.020470     282.150909
Averages over the last 51 of 101 rows, steps 160000 to 210000:
Temp Volume Density TotEng PotEng E_bond E_angle E_dihed E_coul E_long E_vdwl Enthalpy Press
296.666 52941.7 0.467289 -10089 -10668.2 185.672 191.447 101.199 -6204.14 -4652.14 -290.261 -10089.7 -0.925709
Loop time of 112.73 on 128 procs for 100000 steps with 656 atoms

unfix equil
undump equil

# WRITE RESTART FILES, CLEANUP, AND EXIT
write_restart   extend.end.restart
PPPM initialization ...
  G vector (1/distance) = 0.15914
  grid = 8 18 8
  stencil order = 5
  estimated absolute RMS force accuracy = 0.0216879
  estimated relative force accuracy = 6.53124e-05
  3d grid and FFT values/proc = 392 16
  update every 1 steps, delay 10 steps, check yes
write_data      extend.end.data pair ii
PPPM initialization ...
  G vector (1/distance) = 0.15914
  grid = 8 18 8
  stencil order = 5
  estimated absolute RMS force accuracy = 0.0216879
  estimated relative force accuracy = 6.53124e-05
  3d grid and FFT values/proc = 392 16
  update every 1 steps, delay 10 steps, check yes
unfix           averages

# Update run number
variable sub equal (v_run+1)
shell sed -i /variable.*run.*index/s/0/1/g eval.in.init
